/*--------------------------------*- C++ -*----------------------------------*\
  =========                 |
  \\      /  F ield         | OpenFOAM: The Open Source CFD Toolbox
   \\    /   O peration     | Website:  https://openfoam.org
    \\  /    A nd           | Version:  12
     \\/     M anipulation  |
\*---------------------------------------------------------------------------*/
FoamFile
{
    format      binary;
    class       polyBoundaryMesh;
    location    "constant/polyMesh";
    object      boundary;
}
// * * * * * * * * * * * * * * * * * * * * * * * * * * * * * * * * * * * * * //

8
(
    lowerWall
    {
        type            wall;
        inGroups        List<word> 1(wall);
        nFaces          158;
        startFace       32917;
    }
    lowerSymmetry
    {
        type            patch;
        nFaces          0;
        startFace       33075;
    }
    upperSymmetry
    {
        type            patch;
        nFaces          158;
        startFace       33075;
    }
    inlet
    {
        type            patch;
        nFaces          0;
        startFace       33233;
    }
    outlet
    {
        type            patch;
        nFaces          0;
        startFace       33233;
    }
    defaultFaces
    {
        type            empty;
        inGroups        List<word> 1(empty);
        nFaces          33180;
        startFace       33233;
    }
    procBoundary0to1
    {
        type            processor;
        inGroups        List<word> 1(processor);
        nFaces          105;
        startFace       66413;
        matchTolerance  0.0001;
        myProcNo        0;
        neighbProcNo    1;
    }
    procBoundary0to2
    {
        type            processor;
        inGroups        List<word> 1(processor);
        nFaces          105;
        startFace       66518;
        matchTolerance  0.0001;
        myProcNo        0;
        neighbProcNo    2;
    }
)

// ************************************************************************* //
