/*--------------------------------*- C++ -*----------------------------------*\
  =========                 |
  \\      /  F ield         | OpenFOAM: The Open Source CFD Toolbox
   \\    /   O peration     | Website:  https://openfoam.org
    \\  /    A nd           | Version:  12
     \\/     M anipulation  |
\*---------------------------------------------------------------------------*/
FoamFile
{
    format      binary;
    class       polyBoundaryMesh;
    location    "constant/polyMesh";
    object      boundary;
}
// * * * * * * * * * * * * * * * * * * * * * * * * * * * * * * * * * * * * * //

8
(
    lowerWall
    {
        type            wall;
        inGroups        List<word> 1(wall);
        nFaces          159;
        startFace       33126;
    }
    lowerSymmetry
    {
        type            patch;
        nFaces          0;
        startFace       33285;
    }
    upperSymmetry
    {
        type            patch;
        nFaces          159;
        startFace       33285;
    }
    inlet
    {
        type            patch;
        nFaces          0;
        startFace       33444;
    }
    outlet
    {
        type            patch;
        nFaces          0;
        startFace       33444;
    }
    defaultFaces
    {
        type            empty;
        inGroups        List<word> 1(empty);
        nFaces          33390;
        startFace       33444;
    }
    procBoundary2to0
    {
        type            processor;
        inGroups        List<word> 1(processor);
        nFaces          105;
        startFace       66834;
        matchTolerance  0.0001;
        myProcNo        2;
        neighbProcNo    0;
    }
    procBoundary2to3
    {
        type            processor;
        inGroups        List<word> 1(processor);
        nFaces          105;
        startFace       66939;
        matchTolerance  0.0001;
        myProcNo        2;
        neighbProcNo    3;
    }
)

// ************************************************************************* //
