/*--------------------------------*- C++ -*----------------------------------*\
  =========                 |
  \\      /  F ield         | OpenFOAM: The Open Source CFD Toolbox
   \\    /   O peration     | Website:  https://openfoam.org
    \\  /    A nd           | Version:  12
     \\/     M anipulation  |
\*---------------------------------------------------------------------------*/
FoamFile
{
    format      ascii;
    class       polyBoundaryMesh;
    location    "constant/polyMesh";
    object      boundary;
}
// * * * * * * * * * * * * * * * * * * * * * * * * * * * * * * * * * * * * * //

5
(
    top
    {
        type            wall;
        inGroups        List<word> 1(wall);
        nFaces          100;
        startFace       5870;
    }
    inlet
    {
        type            patch;
        nFaces          30;
        startFace       5970;
    }
    outlet
    {
        type            patch;
        nFaces          30;
        startFace       6000;
    }
    front
    {
        type            wedge;
        inGroups        List<word> 1(wedge);
        nFaces          3000;
        startFace       6030;
    }
    back
    {
        type            wedge;
        inGroups        List<word> 1(wedge);
        nFaces          3000;
        startFace       9030;
    }
)

// ************************************************************************* //
